ipss.test.plugin.core/testData/psse/v33/sample_v33.raw
0,   100.00, 33, 0, 1, 60.00     / PSS(R)E 33 RAW created by rawd33  SUN, FEB 16 2025  17:09
PSS(R)E SAMPLE CASE - ALL RECORD GROUPS WITH SEQ DATA
NO NODE BREAKERS, NO ZERO IMPEDANCE LINES
   101,'NUC-A       ',  21.6000,2,   1,   1,   1,1.01000, -16.0060,1.10000,0.90000,1.10000,0.90000
   102,'NUC-B       ',  21.6000,2,   1,   1,   1,1.01000, -16.3595,1.10000,0.90000,1.10000,0.90000
   151,'NUCPLNT     ', 500.0000,1,   1,   1,   1,0.99937, -19.1528,1.10000,0.90000,1.10000,0.90000
   152,'MID500      ', 500.0000,1,   1,   2,   1,1.04402, -26.9516,1.10000,0.90000,1.10000,0.90000
   153,'MID230      ', 230.0000,1,   1,   3,   1,1.05775, -28.4654,1.10000,0.90000,1.10000,0.90000
   154,'DOWNTN      ', 230.0000,1,   1,   3,   1,0.99320, -33.0729,1.10000,0.90000,1.10000,0.90000
   155,'FACTS TE    ', 230.0000,1,   1,   4,   1,1.01858, -24.2458,1.10000,0.90000,1.10000,0.90000
   201,'HYDRO       ', 500.0000,1,   2,   7,   2,0.99937, -19.1528,1.10000,0.90000,1.10000,0.90000
   202,'EAST500     ', 500.0000,1,   2,   2,   2,1.02287, -28.2616,1.10000,0.90000,1.10000,0.90000
   203,'EAST230     ', 230.0000,1,   2,   8,   2,1.00000, -29.4008,1.10000,0.90000,1.10000,0.90000
   204,'SUB500      ', 500.0000,1,   2,   8,   2,1.03148, -31.2793,1.10000,0.90000,1.10000,0.90000
   205,'SUB230      ', 230.0000,1,   2,   8,   2,1.00000, -33.5567,1.10000,0.90000,1.10000,0.90000
   206,'URBGEN      ',  18.0000,2,   2,   8,   2,1.00000, -31.1018,1.10000,0.90000,1.10000,0.90000
   207,'DUPONT      ', 500.0000,1,   2,   7,   2,1.01930, -25.3665,1.10000,0.90000,1.10000,0.90000
   208,'URBANEAST208', 230.0000,4,   2,   8,   2,1.00000, -31.5246,1.10000,0.90000,1.10000,0.90000
   209,'URBANEAST209', 230.0000,4,   2,   8,   2,1.00000, -31.5246,1.10000,0.90000,1.10000,0.90000
   211,'HYDRO_G     ',  20.0000,2,   2,   7,   2,1.00000, -14.5305,1.10000,0.90000,1.10000,0.90000
   212,'INVERT1     ', 230.0000,1,   2,   7,   2,1.02695, -31.9331,1.10000,0.90000,1.10000,0.90000
   213,'INVERT2     ', 230.0000,1,   2,   7,   2,1.10677, -35.1988,1.10000,0.90000,1.10000,0.90000
   214,'LOADER      ', 230.0000,1,   2,   7,   2,1.07726, -36.6286,1.10000,0.90000,1.10000,0.90000
   215,'URBANEAST215',  18.0000,1,   2,   8,   2,0.91817, -33.4909,1.10000,0.90000,1.10000,0.90000
   216,'URBANEAST216', 230.0000,1,   2,   8,   2,0.99637, -33.5336,1.10000,0.90000,1.10000,0.90000
   217,'URBANEAST217', 230.0000,1,   2,   8,   2,0.99733, -33.5397,1.10000,0.90000,1.10000,0.90000
   218,'URBANEAST218', 230.0000,1,   2,   8,   2,0.99769, -33.5419,1.10000,0.90000,1.10000,0.90000
   301,'NORTH       ', 765.0000,3,   3,   5,   3,1.00000,   0.0000,1.10000,0.90000,1.10000,0.90000
   401,'COGEN-1     ', 500.0000,3,   4,   9,   4,1.00000,   0.0000,1.10000,0.90000,1.10000,0.90000
   402,'COGEN-2     ', 500.0000,3,   6,   9,   4,1.00000,   0.0000,1.10000,0.90000,1.10000,0.90000
  3001,'MINE        ', 230.0000,1,   5,   6,   5,0.99281, -12.1161,1.10000,0.90000,1.10000,0.90000
  3002,'E. MINE     ', 500.0000,1,   5,   6,   5,0.99324, -10.3568,1.10000,0.90000,1.10000,0.90000
  3003,'S. MINE     ', 230.0000,1,   5,   6,   5,0.99225, -11.6741,1.10000,0.90000,1.10000,0.90000
  3004,'WEST        ', 500.0000,1,   5,   6,   5,1.01277, -22.3707,1.10000,0.90000,1.10000,0.90000
  3005,'WEST        ', 230.0000,1,   5,   2,   5,0.99960, -22.9176,1.10000,0.90000,1.10000,0.90000
  3006,'UPTOWN      ', 230.0000,1,   5,   4,   5,1.05775, -28.4654,1.10000,0.90000,1.10000,0.90000
  3007,'RURAL       ', 230.0000,1,   5,   4,   5,0.98217, -26.0764,1.10000,0.90000,1.10000,0.90000
  3008,'CATDOG      ', 230.0000,1,   5,   4,   5,0.99000, -26.4402,1.10000,0.90000,1.10000,0.90000
  3009,'URBNWEST3009', 230.0000,1,   5,   4,   5,0.99048, -26.4598,1.10000,0.90000,1.10000,0.90000
  3010,'INDMOTOR1   ',  21.6000,1,   5,   4,   5,0.96390,   0.3038,1.10000,0.90000,1.10000,0.90000
  3011,'MINE_G      ',  19.4000,3,   5,   6,   5,1.00000,   0.0000,1.10000,0.90000,1.10000,0.90000
  3012,'URBNWEST3012', 230.0000,4,   5,   4,   5,0.99048,   0.0000,1.10000,0.90000,1.10000,0.90000
  3018,'CATDOG_G    ',  13.8000,2,   5,   4,   5,0.99000, -22.6703,1.10000,0.90000,1.10000,0.90000
  3021,'WDUM        ',  18.0000,1,   3,   5,   3,1.00000, -23.4606,1.10000,0.90000,1.10000,0.90000
  3022,'EDUM        ',  18.0000,1,   3,   5,   3,1.00000, -22.7717,1.10000,0.90000,1.10000,0.90000
  9154,'INDGEN1     ',   4.1600,1,   1,   3,   1,0.98615, -32.3912,1.10000,0.90000,1.10000,0.90000
  9204,'INDMOTOR2   ',   0.5750,1,   2,   8,   2,0.98205, -34.9612,1.10000,0.90000,1.10000,0.90000
 70202,'EAST-MOV    ', 500.0000,1,   2,   2,   2,1.02027, -28.4210,1.10000,0.90000,1.10000,0.90000
 93002,'INDGEN2     ',   0.6900,1,   5,   6,   5,0.95517,  -4.2498,1.10000,0.90000,1.10000,0.90000
703003,'S. MINE-MOV ', 230.0000,1,   5,   6,   5,0.99938, -15.6289,1.10000,0.90000,1.10000,0.90000
703005,'WEST-2-MOV  ', 230.0000,1,   5,   2,   5,1.00644, -24.3755,1.10000,0.90000,1.10000,0.90000
999996,'ZSWSH_999996', 500.0000,1,   1,   2,   1,1.04402, -26.9516,1.10000,0.90000,1.10000,0.90000
999995,'ZSWSH_999995',  18.0000,1,   3,   5,   3,1.00000, -23.4606,1.10000,0.90000,1.10000,0.90000
999994,'ZSWSH_999994',  18.0000,1,   3,   5,   3,1.00000, -22.7717,1.10000,0.90000,1.10000,0.90000
0 / END OF BUS DATA, BEGIN LOAD DATA
   152,'1 ',1,   1,   1,  1200.000,   360.000,   868.340,   360.502,   837.794,  -351.338,   1,1,0
   153,'1 ',1,   1,   1,   300.000,   150.000,     0.000,     0.000,     0.000,     0.000,   1,1,0
   154,'1 ',1,   1,   1,   400.000,   200.000,     0.000,     0.000,     0.000,     0.000,   1,1,0
   154,'2 ',1,   1,   1,   250.000,   200.000,     0.000,     0.000,     0.000,     0.000,   1,1,0
   154,'3 ',1,   1,   1,   250.000,   100.000,     0.000,     0.000,     0.000,     0.000,   1,1,0
   154,'MO',1,   1,   1,   100.000,    80.000,     0.000,     0.000,     0.000,     0.000,   1,1,0
   201,'SC',1,   2,   7,     0.000,     0.000,     0.000,     0.000,     0.000,     0.000,   2,1,0
   203,'1 ',1,   2,   2,   500.000,   250.000,     0.000,     0.000,     0.000,     0.000,   2,1,0
   205,'1 ',1,   2,   2,  1800.000,   600.000,     0.000,     0.000,     0.000,     0.000,   2,1,0
   205,'B ',1,   2,   2,    90.000,     5.000,   110.000,    25.000,    20.000,    10.000,   2,1,0
   205,'C ',1,   2,   2,    60.000,    15.000,    45.000,     5.000,    35.000,    30.000,   2,1,0
   214,'1 ',1,   2,   2,   500.000,    75.000,     0.000,     0.000,     0.000,     0.000,   2,1,0
   215,'U1',1,   2,   4,     0.000,   140.000,     0.000,     0.000,     0.000,     0.000,   2,1,0
   216,'U1',1,   2,   4,     0.000,    12.000,     0.000,     0.000,     0.000,     0.000,   2,1,0
   217,'U1',1,   2,   4,     0.000,    10.000,     0.000,     0.000,     0.000,     0.000,   2,1,0
   218,'U1',1,   2,   4,     0.000,     9.000,     0.000,     0.000,     0.000,     0.000,   2,1,0
  3005,'1 ',1,   5,   5,   100.000,    50.000,     0.000,     0.000,     0.000,     0.000,   5,1,0
  3007,'1 ',1,   5,   5,   200.000,    75.000,     0.000,     0.000,     0.000,     0.000,   5,1,0
  3008,'1 ',1,   5,   5,   200.000,    75.000,     0.000,     0.000,     0.000,     0.000,   5,1,0
  3009,'1 ',1,   5,   4,     1.100,     0.900,     0.000,     0.000,     0.000,     0.000,   5,1,0
  3010,'1 ',1,   5,   4,    12.000,     5.000,     0.000,     0.000,     0.000,     0.000,   5,1,0
0 / END OF LOAD DATA, BEGIN FIXED SHUNT DATA
   151,'F1',1,     5.000,  -400.000
   151,'F2',1,     3.000,  -400.000
   151,'F3',1,     3.120,   200.000
   152,'1 ',1,     1.630,    50.000
   154,'1 ',1,     2.450,   200.000
   201,'1 ',1,     3.670,  -500.000
   203,'1 ',1,    -5.000,    30.000
   203,'2 ',1,     5.000,    20.000
   205,'1 ',1,     2.780,   300.000
   212,'1 ',1,     5.130,   400.000
   213,'1 ',1,     5.140,   400.000
  3021,'1 ',1,     0.000,  1320.000
  3022,'1 ',1,     0.000,  1080.000
0 / END OF FIXED SHUNT DATA, BEGIN GENERATOR DATA
   101,'1 ',   750.000,   163.336,   243.750,   -37.500,1.01000,     0,   900.000, 1.00000E-2, 3.00000E-1, 0.00000E+0, 0.00000E+0,1.00000,1,  100.0,   800.000,    50.000,   1,0.1289,   2,0.2524,   3,0.1031,   4,0.5156
   102,'1 ',   650.000,   150.015,   406.250,   -62.500,1.01000,     0,   950.000, 1.05000E-2, 3.20000E-1, 0.00000E+0, 0.00000E+0,1.00000,1,  100.0,   700.000,    33.000,   1,0.3647,   2,0.1838,   3,0.0751,   4,0.3764
   206,'1 ',   800.000,   283.913,   600.000,     0.000,1.00000,     0,  1000.000, 1.06000E-2, 2.51000E-1, 0.00000E+0, 0.00000E+0,1.00000,1,  100.0,   850.000,    50.000,   1,0.1034,   2,0.4006,   3,0.0825,   4,0.4135
   211,'1 ',   600.000,    17.304,   583.333,   -77.778,1.00000,     0,   725.000, 1.08000E-2, 2.62000E-1, 0.00000E+0, 0.00000E+0,1.00000,1,  100.0,   616.000,    30.000,   1,0.1423,   2,0.2210,   3,0.1842,   4,0.4525,1, 1.0000
   301,'1 ',   996.884,   327.660,   327.660,   327.660,1.00000,     0,  1067.000, 1.09000E-2, 2.30000E-1, 1.40000E-2, 1.26000E-1,1.02500,1,   98.0,  1010.000,   320.000,   1,0.1118,   2,0.2184,   3,0.0893,   4,0.5805,3, 0.9500
   301,'2 ',   996.884,   285.481,   710.000,  -600.000,1.00000,     0,  1070.000, 1.10000E-2, 2.40000E-1, 1.10000E-2, 1.27000E-1,1.02600,1,   98.0,  1011.000,   321.000,   1,0.1173,   2,0.3200,   3,0.0936,   4,0.4691
   301,'3 ',   996.884,   285.481,   720.000,  -600.000,1.00000,     0,  1075.000, 8.00000E-3, 2.50000E-1, 1.20000E-2, 1.28000E-1,1.02700,1,   98.0,  1012.000,   322.000,   1,0.1260,   2,0.2268,   3,0.1827,   4,0.4644
   401,'1 ',   321.000,   142.325,   600.000,  -100.000,1.00000,     0,   600.000, 1.23000E-2, 2.22300E-1, 0.00000E+0, 0.00000E+0,1.00000,1,   90.0,   350.000,    25.000,   1,0.1625,   2,0.2423,   3,0.0990,   4,0.4962,4, 1.0000
   402,'1 ',   321.000,   142.325,   610.000,  -110.000,1.00000,     0,   610.000, 4.50000E-3, 2.43200E-1, 0.00000E+0, 0.00000E+0,1.00000,1,   91.0,   351.000,    26.000,   1,0.1588,   2,0.2117,   3,0.1959,   4,0.4335,4, 1.0000
  3011,'1 ',  1142.016,   132.445,   600.000,  -100.000,1.00000,     0,  1050.000, 7.60000E-3, 3.54300E-1, 0.00000E+0, 0.00000E+0,1.00000,1,   92.0,  1400.000,   100.000,   1,0.1452,   2,0.1926,   3,0.2677,   4,0.3945
0 / END OF GENERATOR DATA, BEGIN BRANCH DATA
   151,   152,'1 ', 2.60000E-3, 4.60000E-2,   3.50000, 1200.00, 1202.12, 1203.13,  0.01000, -0.25000,  0.01100, -0.15000,1,2, 150.00,   1,0.2000,   2,0.3000,   3,0.4000,   4,0.1000
   151,   152,'2 ', 2.61000E-3, 4.61000E-2,   3.51000, 1205.00, 1207.12, 1208.13,  0.01300, -0.25100,  0.01200, -0.02000,1,2, 149.00,   5,0.2315,   1,0.3056,   2,0.3704,   3,0.0926
   151,   201,'*1',-0.00000E+0, 1.00000E-4,   0.00000, 5001.01, 5002.02, 5003.03,  0.00000,  0.00000,  0.00000,  0.00000,1,2,   0.00,   1,1.0000
   152,  3004,'1 ', 3.00000E-3, 3.00000E-2,   2.50000, 1207.00, 1209.12, 1210.13,  0.00000,  0.00000,  0.00000,  0.00000,1,2, 201.00,   5,0.2379,   1,0.3033,   2,0.3667,   3,0.0922
   152, 70202,'1 ', 8.00000E-4, 1.00000E-2,   0.95000, 1207.00, 1209.12, 1210.13,  0.00000,  0.00000,  0.00000,  0.00000,1,1, 200.00,   1,0.3939,   2,0.2273,   3,0.3030,   4,0.0758
   153,   154,'2 ', 6.00000E-3, 5.40000E-2,   0.15000,  350.00,  352.12,  353.13,  0.00000,  0.00000,  0.00000,  0.00000,1,2,  80.00,   2,0.2727,   3,0.2727,   4,0.3636,   5,0.0909
   153,  3006,'@1',-0.00000E+0, 1.00000E-4,   0.00000, 2201.01, 2202.02, 2203.03,  0.00000,  0.00000,  0.00000,  0.00000,1,2,   0.00,   1,1.0000
   154,   155,'1 ', 5.00000E-3, 4.50000E-2,   0.10000,  400.00,  402.12,  403.13,  0.00000,  0.00000,  0.00000,  0.00000,1,1,  81.00,   5,0.1914,   1,0.2535,   2,0.3065,   3,0.2486
   154,   203,'1 ', 4.00000E-3, 4.00000E-2,   0.10000,  400.00,  402.12,  403.13,  0.00000,  0.00000,  0.00000,  0.00000,1,2, 100.00,   2,0.2000,   3,0.3000,   4,0.4000,   5,0.1000
   154,   205,'1 ', 3.30000E-4, 3.33000E-3,   0.09000,  600.00,  602.12,  603.13,  0.00000,  0.00000,  0.00000,  0.00000,1,2, 120.00,   1,0.1667,   2,0.2500,   3,0.3333,   4,0.2500
   154,  3008,'1 ', 2.70000E-3, 2.20000E-2,   0.30000,  800.00,  802.12,  803.13,  0.00000,  0.00000,  0.00000,  0.00000,1,2, 119.00,   5,0.1925,   1,0.2550,   2,0.3083,   3,0.2442
   201,   202,'1 ', 2.00000E-3, 2.50000E-2,   2.00000, 1200.00, 1202.12, 1203.13,  0.00000,  0.00000,  0.00000,  0.00000,1,2, 300.00,   2,0.1905,   3,0.2857,   4,0.3810,   5,0.1429
   201,   207,'C1', 1.50000E-3, 1.50000E-2,   1.25000, 1200.00, 1202.12, 1203.13,  0.00000,  0.00000,  0.00000,  0.00000,1,2, 250.00,   1,0.2500,   2,0.3750,   3,0.2500,   4,0.1250
   202, 70202,'1 ',-0.00000E+0,-1.00000E-3,   0.00000, 1207.00, 1209.12, 1210.13,  0.00000,  0.00000,  0.00000,  0.00000,1,1,   1.00,   1,0.3939,   2,0.2273,   3,0.3030,   4,0.0758
   203,   205,'1 ', 5.00000E-3, 4.50000E-2,   0.08000,  200.00,  202.12,  203.13,  0.00000,  0.00000,  0.00000,  0.00000,1,1,  70.00,   5,0.1925,   1,0.2550,   2,0.3083,   3,0.2442
   204,   207,'C2', 1.50000E-3, 1.50000E-2,   1.25000, 1200.00, 1202.12, 1203.13,  0.00000,  0.00000,  0.00000,  0.00000,1,2, 300.00,   2,0.2000,   3,0.3000,   4,0.4000,   5,0.1000
   205,   212,'1 ',-0.00000E+0, 1.00000E-2,   0.00000, 1250.00, 1252.12, 1253.13,  0.00000,  0.00000,  0.00000,  0.00000,1,1,  71.00,   1,0.2000,   2,0.3000,   3,0.4000,   4,0.1000
   205,   214,'2 ', 2.00000E-3, 2.50000E-2,   2.00000, 1200.00, 1202.12, 1203.13,  0.00000,  0.00000,  0.00000,  0.00000,1,2, 100.00,   5,0.2100,   1,0.2782,   2,0.3364,   3,0.1755
   205,   216,'3 ', 5.00000E-3, 4.50000E-2,   0.08000,  200.00,  202.12,  203.13,  0.00000,  0.00000,  0.00000,  0.00000,1,2,  81.00,   2,0.1818,   3,0.2727,   4,0.3636,   5,0.1818
   205,   217,'4 ', 5.00000E-3, 4.50000E-2,   0.08000,  200.00,  202.12,  203.13,  0.00000,  0.00000,  0.00000,  0.00000,1,2,  80.00,   1,0.1667,   2,0.2500,   3,0.3333,   4,0.2500
   205,   218,'5 ', 5.00000E-3, 4.50000E-2,   0.08000,  200.00,  202.12,  203.13,  0.00000,  0.00000,  0.00000,  0.00000,1,2,  59.00,   5,0.1650,   1,0.2186,   2,0.2643,   3,0.3521
   213,   214,'1 ',-0.00000E+0, 1.00000E-2,   0.00000, 1250.00, 1252.12, 1253.13,  0.00000,  0.00000,  0.00000,  0.00000,1,2,   0.50,   2,0.1429,   3,0.2143,   4,0.2857,   5,0.3571
  3001,703003,'1 ',-0.00000E+0, 8.00000E-3,   0.00000,  320.00,  322.12,  323.13,  0.00000,  0.00000,  0.00000,  0.00000,1,2,  70.00,   1,0.1639,   2,0.2459,   3,0.3279,   4,0.2623
  3002,  3004,'1 ', 6.00000E-3, 5.40000E-2,   0.09000,  330.00,  332.12,  333.13,  0.00000,  0.00000,  0.00000,  0.00000,1,2, 200.00,   5,0.1925,   1,0.2550,   2,0.3083,   3,0.2442
  3003,  3005,'1 ', 6.00000E-3, 5.40000E-2,   0.09000,  340.00,  342.12,  343.13,  0.00000,  0.00000,  0.00000,  0.00000,1,2,  90.00,   2,0.2000,   3,0.3000,   4,0.4000,   5,0.1000
  3003,703003,'1 ',-0.00000E+0,-9.00000E-3,   0.00000,  350.00,  352.12,  353.13,  0.00000,  0.00000,  0.00000,  0.00000,1,2,   1.00,   5,0.1925,   1,0.2550,   2,0.3083,   3,0.2442
  3003,703005,'2 ', 6.00000E-3, 5.40000E-2,   0.09000,  360.00,  362.12,  363.13,  0.00000,  0.00000,  0.00000,  0.00000,1,2,  90.00,   1,0.1333,   2,0.2000,   3,0.2667,   4,0.4000
  3005,  3006,'1 ', 3.50000E-3, 3.00000E-2,   0.07000,  370.00,  372.12,  373.13,  0.00000,  0.00000,  0.00000,  0.00000,1,2,  70.00,   5,0.1650,   1,0.2186,   2,0.2643,   3,0.3521
  3005,  3007,'1 ', 3.00000E-3, 2.50000E-2,   0.06000,  380.00,  382.12,  383.13,  0.00000,  0.00000,  0.00000,  0.00000,1,2,  80.00,   2,0.1527,   3,0.2290,   4,0.3053,   5,0.3130
  3005,  3008,'1 ', 6.00000E-3, 5.00000E-2,   0.12000,  390.00,  392.12,  393.13,  0.00000,  0.00000,  0.00000,  0.00000,0,2,  60.00,   1,0.1802,   2,0.2703,   3,0.3604,   4,0.1892
  3005,703005,'2 ',-0.00000E+0,-6.50000E-3,   0.00000,  500.00,  502.12,  503.13,  0.00000,  0.00000,  0.00000,  0.00000,1,2,   1.00,   1,0.1333,   2,0.2000,   3,0.2667,   4,0.4000
  3007,  3008,'1 ', 3.00000E-3, 2.50000E-2,   0.06000,  510.00,  512.12,  513.13,  0.00000,  0.00000,  0.00000,  0.00000,1,2,  60.00,   5,0.1858,   1,0.2462,   2,0.4023,   3,0.1657
  3008,  3009,'1 ', 3.00000E-3, 2.50000E-2,   0.06000,   25.00,   27.12,   28.13,  0.00000,  0.00000,  0.00000,  0.00000,1,2,  60.00,   1,0.1797,   2,0.2695,   3,0.3594,   4,0.1914
   152,999996,'1 ', 0.00000E+0, 1.00000E-4,   0.00000,0,0,0,0,0,0,0,1,1,0,,,,,1,1,1,1
  3021,999995,'1 ', 0.00000E+0, 1.00000E-4,   0.00000,0,0,0,0,0,0,0,1,1,0,,,,,1,1,1,1
  3022,999994,'1 ', 0.00000E+0, 1.00000E-4,   0.00000,0,0,0,0,0,0,0,1,1,0,,,,,1,1,1,1
0 / END OF BRANCH DATA, BEGIN TRANSFORMER DATA
   101,   151,     0,'T1',2,2,1, 1.71470E-1,-1.02880E-1,2,'EL DORADO NU',1,   1,0.3200,   2,0.3900,   3,0.1400,   4,0.1500,'Dyn1        '
 1.10000E-3, 9.10000E-2,  1200.00
21.6000,  21.600,   0.000,  1200.00,  1202.12,  1203.13, 1,    101,22.68000,20.52000, 1.05000, 0.95000,  25, 0, 0.00021, 0.00051,   0.000
500.000, 500.000
   102,   151,     0,'T2',2,1,2, 4.53750E+5, 2.60000E-3,2,'EL DORADO NU',1,   1,0.2100,   2,0.2500,   3,0.2200,   4,0.3200,'Dyn1        '
 1.20000E-4, 7.60000E-3,  1210.00
21.6000,  21.600,   0.000,  1210.00,  1212.12,  1213.13, 1,    102,22.57200,20.62800, 1.04500, 0.95500,  27, 0, 0.00022, 0.00052,   0.000
500.000, 500.000
   152,   153,     0,'T3',2,1,1, 2.10000E-4,-1.20000E-4,2,'MID LTC     ',1,   1,0.3500,   2,0.2200,   3,0.2500,   4,0.1800,'YNyn0       '
 1.70000E-4, 7.75000E-3,   800.00
475.000, 500.000,   0.000,   800.00,   802.12,   803.13, 1,    154,525.0000,475.0000, 1.00000, 0.98000,  10, 0, 0.00023, 0.00053,   0.000
230.000, 230.000
   152,  3021,     0,'T4',1,2,2, 5.62500E+5, 2.80000E-3,2,'WDUM DC     ',1,   1,0.3900,   2,0.3200,   3,0.1500,   4,0.1400,'YNyn0       '
 1.30000E-3, 6.30000E-2,  1500.00
1.10000, 500.000,   0.000,  1500.00,  1502.12,  1503.13, 4,      0, 1.10000, 0.90000, 1.10000, 0.90000,  33, 2, 0.00000, 0.00000,   0.000
1.00000,  18.000
   152,  3022,     0,'T5',1,2,1, 4.00000E-4,-2.10000E-4,2,'EDUM DC     ',1,   1,0.2200,   2,0.2500,   3,0.2100,   4,0.3200,'YNyn0       '
 1.70000E-3, 7.40000E-2,  1510.00
1.10000, 500.000,   0.000,  1510.00,  1512.12,  1513.13, 4,      0, 1.10000, 0.90000, 1.10000, 0.90000,  33, 0, 0.00000, 0.00000,   0.000
1.00000,  18.000
   154,  9154,     0,'W1',1,1,1, 0.00000E+0, 0.00000E+0,2,'WTG1XMER    ',1,   1,1.0000,   0,1.0000,   0,1.0000,   0,1.0000,'YNd1        '
 0.00000E+0, 5.83330E-1,    12.00
1.00000,   0.000,   0.000,    12.00,    14.12,    15.13, 0,      0, 1.10000, 0.90000, 1.10000, 0.90000,  33, 0, 0.00000, 0.00000,   0.000
1.00000,   0.000
   201,   211,     0,'T6',2,1,2, 2.62500E+5, 3.00000E-3,2,'HYDRO_G XMER',1,   1,0.1400,   2,0.1500,   3,0.3200,   4,0.3900,'YNd1        '
 2.60000E-4, 1.34300E-2,   700.00
500.000, 500.000,   0.000,   700.00,   702.12,   703.13, 0,      0, 1.10000, 0.90000, 1.10000, 0.90000,   5, 0, 0.00000, 0.00000,   0.000
20.0000,  20.000
   203,   202,     0,'T7',1,2,1, 9.50000E-4,-4.60000E-4,1,'EAST PS     ',1,   1,0.2754,   2,0.3261,   3,0.2899,   4,0.1087,'YNyn0       '
 2.10000E-3, 5.40000E-2,   750.00
0.99000, 230.000,   2.564,   750.00,   752.12,   753.13, 3,      0,12.00000,-11.0000,-900.000,-950.000,  33, 1, 0.00000, 0.00000,   0.000
1.00000, 500.000
   204,   205,     0,'T8',1,2,1, 1.13000E-3,-5.20000E-4,2,'SUB LTC     ',1,   1,0.3019,   2,0.4245,   3,0.1321,   4,0.1415,'YNyn0       '
 3.70000E-3, 4.50000E-2,   800.00
1.03667, 500.000,   0.000,   800.00,   802.12,   803.13, 1,    205, 1.05000, 0.95000, 1.00000, 0.98000,  16, 0, 0.00024, 0.00054,   0.000
1.00000, 230.000
   204,  9204,     0,'W2',1,1,1, 0.00000E+0, 0.00000E+0,2,'WTG2XMER    ',1,   2,1.0000,   0,1.0000,   0,1.0000,   0,1.0000,'YNd1        '
 8.80000E-2, 6.61710E-1,     8.75
1.00000,   0.000,   0.000,     8.75,    10.87,    11.88, 0,      0, 1.10000, 0.90000, 1.10000, 0.90000,  33, 0, 0.00000, 0.00000,   0.000
1.00000,   0.000
   205,   206,     0,'T9',1,2,1, 1.13000E-3,-5.20000E-4,2,'URB TX      ',1,   1,0.1905,   2,0.4643,   3,0.1667,   4,0.1786,'YNd1        '
 1.60000E-3, 4.80000E-2,   900.00
1.01591, 230.000,   0.000,   900.00,   902.12,   903.13, 2,      0, 1.05000, 0.97500,-175.000,-250.000,  12, 0, 0.00000, 0.00000,   0.000
1.00000,  18.000
   205,   215,   208,'3 ',1,1,2, 3.42000E+4, 2.28000E-3,2,'THREE WDG WI',3,   2,0.2540,   2,0.1746,   3,0.3333,   4,0.2381,'YN0yn0y0    '
 7.52998E-4, 5.36670E-2,   150.00, 1.24790E-2, 8.73500E-1,    20.00, 2.00690E-2, 1.34000E+0,    15.00,0.60345, -32.9960
1.00000, 230.000,   0.000,   150.00,   152.12,   153.13,-1,    215, 1.10000, 0.90000, 1.10000, 0.90000,  33, 5, 0.00025, 0.00064,   0.000
1.00000,  18.000,   0.000,    20.00,    22.12,    23.13, 0,      0, 1.20000, 0.90120, 1.10000, 0.90000,  33, 0, 0.00012, 0.00046,   0.000
1.00000, 230.000,   0.000,    15.00,    17.12,    18.13, 0,      0, 1.10000, 0.90000, 1.10000, 0.90000,  33, 0, 0.00000, 0.00000,   0.000
   209,   217,   218,'4 ',2,3,2, 4.18934E+1, 9.98336E-6,2,'3WNDSTAT4   ',4,   2,0.4671,   2,0.1250,   3,0.2379,   4,0.1700,'YN0yn0yn0   '
 2.28000E+5, 1.00010E-1,    30.00, 1.90000E+5, 9.00000E-2,    25.00, 2.66000E+5, 7.50000E-2,    35.00,0.99757, -33.5410
230.000, 230.000,   0.000,    30.00,    32.12,    33.13,-1,      0,253.0000,207.0000, 1.10000, 0.90000,  33, 2, 0.00031, 0.00784,   0.000
230.000, 230.000,   0.000,    25.00,    27.12,    28.13,-1,    217,253.0000,207.0000, 1.10000, 0.90000,  33, 2, 0.00021, 0.00862,   0.000
230.000, 230.000,   0.000,    35.00,    37.12,    38.13,-1,      0,253.0000,207.0000, 1.10000, 0.90000,  33, 2, 0.00024, 0.00000,   0.000
  3002, 93002,     0,'W3',1,1,1, 0.00000E+0, 0.00000E+0,2,'WTG3XMER    ',1,   5,1.0000,   0,1.0000,   0,1.0000,   0,1.0000,'YNd1        '
 0.00000E+0, 2.02703E+0,     3.70
1.00000,   0.000,   0.000,     3.70,     5.82,     6.83, 0,      0, 1.10000, 0.90000, 1.10000, 0.90000,  33, 0, 0.00000, 0.00000,   0.000
1.00000,   0.000
  3005,  3004,     0,'10',1,1,2, 2.06250E+5, 3.40000E-3,1,'WEST TX     ',1,   1,0.2645,   2,0.4959,   3,0.1157,   4,0.1240,'YNa0        '
 3.50000E-4, 9.64000E-3,   550.00
1.00000, 230.000,   0.000,   550.00,   552.12,   553.13, 0,      0, 1.10000, 0.90000, 1.10000, 0.90000,   3, 0, 0.00000, 0.00000,   0.000
1.00000, 500.000
  3008,  3018,     0,'11',2,1,2, 1.96875E+5, 3.50000E-3,2,'CATDOG_XMER ',1,   1,0.2051,   2,0.2500,   3,0.4487,   4,0.0962,'YNa0        '
 4.40000E-4, 1.27600E-2,   525.00
230.000, 230.000,   0.000,   525.00,   527.12,   528.13, 0,      0, 1.10000, 0.90000, 1.10000, 0.90000,  22, 2, 0.00000, 0.00000,   0.000
13.8000,  13.800
0 / END OF TRANSFORMER DATA, BEGIN AREA DATA
   1,   101, -2800.000,    10.000,'CENTRAL     '
   2,   206, -1600.000,    10.000,'EAST        '
   3,   301,  2900.000,    55.000,'CENTRAL_DC  '
   4,   401,   300.000,    15.000,'EAST_COGEN1 '
   5,  3011,   900.000,    10.000,'WEST        '
   6,   402,   300.000,    20.000,'EAST_COGEN2 '
0 / END OF AREA DATA, BEGIN TWO-TERMINAL DC DATA
"TWO_TERM_DC1",1,    7.8543,   1490.65,    525.00,    400.00,    3.9420,   0.15560,'I',      0.00,  20,   1.00000
   301, 2,13.00, 7.50, 0.0111, 3.8800, 500.0,0.44000,1.06275,1.10000,0.90000,0.00525,     0,     0,     0,'1 ', 2.0034
  3021, 2,21.00,18.50, 0.0000, 3.0470, 230.0,0.95652,1.07500,1.10000,0.80000,0.00625,     0,   152,  3021,'T4', 2.0000
"TWO_TERM_DC2",1,    8.2000,   1500.00,    525.00,    400.00,    4.1000,   0.15000,'I',      0.00,  20,   1.00000
   301, 2,12.00, 8.00, 0.0110, 3.8800, 500.0,0.44000,1.05450,1.11200,0.90000,0.00515,     0,     0,     0,'1 ', 0.0098
  3022, 2,20.00,18.00, 0.0120, 3.0470, 230.0,0.95652,1.06250,1.10000,0.80000,0.00625,     0,   152,  3022,'T5', 0.0074
0 / END OF TWO-TERMINAL DC DATA, BEGIN VSC DC LINE DATA
"VDCLINE1    ",1,    0.7100,   1,0.3204,   2,0.3883,   3,0.1942,   4,0.0971
  3005,2,2,   -209.00, 0.95000,   100.000,     0.100,    50.000,    400.00,   1200.00,0.10000,    100.00,   -110.00,     0,  100.0
  3008,1,1,    100.00, 0.99000,    90.000,     0.150,    40.000,    350.00,   1200.00,0.15000,    150.00,   -140.00,     0,  100.0
"VDCLINE2    ",1,    0.3500,   1,0.3705,   2,0.3597,   3,0.1799,   4,0.0899
   203,2,1,   -100.00, 1.00000,   100.000,     0.150,   123.000,    200.00,   1200.00,1.00000,    200.00,   -150.00,     0,  100.0
   205,1,1,    100.00, 1.00000,    93.000,     0.120,    98.000,    250.00,   1250.00,1.00000,    225.00,   -250.00,     0,   99.0
0 / END OF VSC DC LINE DATA, BEGIN IMPEDANCE CORRECTION DATA
 1, -30.00, 1.10000, -24.00, 1.09100, -18.00, 1.08400, -12.00, 1.06300,  -6.00, 1.03200,   0.00, 1.00000,   6.00, 1.03000,  12.00, 1.06000,  18.00, 1.08000,  24.00, 1.09000,  30.00, 1.11000
 2,0.60000, 1.06000,0.70000, 1.05000,0.80000, 1.04000,0.90000, 1.03000,0.95000, 1.02000,1.00000, 1.01000,1.05000, 0.99000,1.10000, 0.98000,1.20000, 0.97000,1.30000, 0.96000,1.40000, 0.95000
 3,0.95000, 1.00620,1.00000, 1.00000,1.05000, 0.99006
 4,0.95000, 0.96964,1.00000, 1.00000,1.05000, 1.02486
 5,0.94000, 1.00620,1.00000, 1.00000,1.06000, 0.99006
0 / END OF IMPEDANCE CORRECTION DATA, BEGIN MULTI-TERMINAL DC DATA
"MULTERM_DC_1" 4, 5, 4, 1,   212,    400.00,     0
   402, 4,10.00, 8.00,  0.0000, 19.0000, 500.0,0.22000,1.01000,1.10000,0.97000,0.01000,   321.00, 1.0000,  0.15000, 3
   401, 4,10.00, 8.00,  0.0000, 19.0000, 500.0,0.22000,1.01000,1.10000,0.97000,0.01000,   321.00, 1.0000,  0.15000, 3
   212, 4,20.00,18.00,  0.0000, 10.0000, 230.0,0.45200,1.04000,1.10000,0.90000,0.01000,   500.00, 1.0000,  0.00000, 1
   213, 4,20.00,18.00,  0.0000, 10.0000, 230.0,0.45200,1.10000,1.10000,0.90000,0.01000,  -303.80, 1.0000,  0.00000, 4
 1,   401,   4,   4,'DC1         ', 0,   0.0000,   4
 2,   212,   2,   2,'DC2         ', 0,   0.0000,   2
 3,   402,   4,   4,'DC3         ', 0,   0.0000,   4
 4,   213,   2,   2,'DC4         ', 0,   0.0000,   2
 5,     0,   4,   4,'DC5         ', 0,   0.0000,   4
 1, 5,'1',1,   29.0000,     0.00
 2, 5,'1',1,   29.0000,     0.00
 3, 5,'1',1,   29.0000,     0.00
 4, 5,'1',1,   29.0000,     0.00
0 / END OF MULTI-TERMINAL DC DATA, BEGIN MULTI-SECTION LINE DATA
   201,   204,'&1',2,   207
0 / END OF MULTI-SECTION LINE DATA, BEGIN ZONE DATA
   1,'NORTH_A1    '
   2,'MID_A1_A2_A5'
   3,'DISCNT_IN_A1'
   4,'SOUTH_A1_A5 '
   5,'ALL_A3      '
   6,'NORTH_A5    '
   7,'NORTH_A2    '
   8,'SOUTH_A2    '
   9,'ALL_A4_A6   '
0 / END OF ZONE DATA, BEGIN INTER-AREA TRANSFER DATA
   1,   2,'A',  1000.00
   1,   5,'B', -3800.00
   2,   4,'C',  -300.00
   2,   6,'E',  -300.00
   3,   5,'D',  2900.00
0 / END OF INTER-AREA TRANSFER DATA, BEGIN OWNER DATA
   1,'OWNER 1     '
   2,'OWNER 2     '
   3,'OWNER 3     '
   4,'OWNER 4     '
   5,'OWNER 5     '
0 / END OF OWNER DATA, BEGIN FACTS DEVICE DATA
"FACTS_DVCE_1",   153,     0,1,     0.000,     0.000,1.01500,    50.000,   100.000,0.92630,1.13400,1.00000,     0.000, 0.05652,  100.0,   1,   0.00000,   0.00000,0,     0,"            "
"FACTS_DVCE_2",   153,   155,1,   350.000,    40.000,1.01500,    25.000,  9999.000,0.90000,1.10000,1.00000,     0.000, 0.05000,  100.0,   1,   0.00000,   0.00000,0,     0,"            "
0 / END OF FACTS DEVICE DATA, BEGIN SWITCHED SHUNT DATA
   152,1,0,1,1.04500,0.95500,     0,  100.0,'            ', -115.00, 1,  -15.00, 2,   -5.00, 3,  -10.00, 4,   -8.00, 5,   -7.00, 6,   -5.00, 7,   -7.00, 8,   -4.00
999996,1,0,1,1.04500,0.95500,     0,  100.0,'            ', -115.00, 1,  -15.00, 2,   -5.00, 3,  -10.00, 4,   -8.00, 5,   -7.00, 6,   -5.00, 7,   -7.00, 8,   -4.00
   154,1,0,1,1.04480,0.96500,     0,  100.0,'            ',  124.00, 1,   25.00, 2,   10.00, 2,   15.00, 1,   15.00, 2,    5.00, 3,    3.00, 2,    4.00, 1,    7.00
  3005,4,0,1,0.98000,0.64000,  3005,  100.0,'VDCLINE1    ',    0.00, 1,   33.35
999995,2,0,1,1.00000,1.00000,     0,  100.0,'            ',  245.68, 2,  100.00, 1,   50.00, 2,   25.00, 4,   12.50
  3021,2,0,1,1.00000,1.00000,     0,  100.0,'            ',  245.68, 2,  100.00, 1,   50.00, 2,   25.00, 4,   12.50
  3022,2,0,1,1.00000,1.00000,     0,  100.0,'            ',  296.29, 4,   50.00, 2,   25.00, 4,   12.50, 3,   10.00, 2,   10.00
999994,2,0,1,1.00000,1.00000,     0,  100.0,'            ',  296.29, 4,   50.00, 2,   25.00, 4,   12.50, 3,   10.00, 2,   10.00
 93002,1,0,1,0.99628,0.99628,     0,  100.0,'            ',    1.44, 1,    1.44
0 / END OF SWITCHED SHUNT DATA, BEGIN GNE DATA
0 / END OF GNE DATA, BEGIN INDUCTION MACHINE DATA
  3010,"1 ",1,1,2,   5,   4,   5,1,1,   1.000,  21.600,1, 1.0000,   1.000,   1.000,   1.000,   1.000,   1.000
  9154,"1 ",1,1,2,   1,   3,   1,1,2,   2.270,   4.160,2,-2.0000,   1.000,   1.000,   1.000,  -1.000,   1.000
  9204,"1 ",1,1,2,   2,   8,   2,1,1,  10.000,   0.575,1,10.0000,   1.000,   1.000,   1.000,   1.000,   1.000
 93002,"1 ",1,1,2,   5,   6,   5,1,2,   5.620,   0.690,2,-5.0000,   1.000,   1.000,   1.000,  -1.000,   1.000
0 / END OF INDUCTION MACHINE DATA
Q
